9
Fe2
Fe    0.000000    0.000000    0.000000
Fe    0.000000    0.000000    2.848116
Fe    0.000000    2.848116    0.000000
Fe    0.000000    2.848116    2.848116
Fe    2.848116    0.000000    0.000000
Fe    2.848116    0.000000    2.848116
Fe    2.848116    2.848116    0.000000
Fe    2.848116    2.848116    2.848116
Fe    1.424058    1.424058    1.424058
