16
C1
 C    4.781273    7.708708    4.138214
 C    0.134711    0.529291    0.446658
 C   -0.085097    7.708708    2.739094
 C    5.001081    0.529291    1.845778
 C    2.103474    3.589709    4.138214
 C    2.812511    4.648292    0.446658
 C    2.592703    3.589709    2.739094
 C    2.323282    4.648292    1.845778
 C    3.980723    6.634391    4.486710
 C    0.935262    1.603609    0.098162
 C    0.715454    6.634391    2.390598
 C    4.200531    1.603609    2.194274
 C    1.302923    2.515391    4.486710
 C    3.613062    5.722609    0.098162
 C    3.393254    2.515391    2.390598
 C    1.522731    5.722609    2.194274
